resultados/Relatorios/ieee30-libsvc/ieee30-libsvc-report.txt
March 31, 2023


relatório do sistema ieee30-libsvc

solução do fluxo de potência via método newton-raphson

opções de controle ativadas: SVC 

opções de relatório ativadas: RBARRA RSVC 



vv relatório de convergência vv

       |  FREQ  |  ERROR  | BARRA |  ERROR  | BARRA |  ERROR  | BARRA |
| ITER |    Hz  |     MW  |   NUM |   Mvar  |   NUM |   CTRL  |   NUM |
-----------------------------------------------------------------------
|  1   | 60.000 | 92.801  |   5   | 30.335  |  21   |  0.000  |   1   |
|  2   | 60.000 |  5.095  |   2   |  5.944  |   6   |  0.000  |   2   |
|  3   | 60.000 |  0.016  |   6   |  0.046  |   3   |  0.000  |   2   |
|  4   | 60.000 |  0.000  |   4   |  0.000  |   3   |  0.000  |   1   |
-----------------------------------------------------------------------

 * * * * SISTEMA CONVERGENTE * * * * 

       |  FREQ  |  ERROR  | BARRA |  ERROR  | BARRA |  ERROR  | BARRA |
| ITER |    Hz  |     MW  |   NUM |   Mvar  |   NUM |   CTRL  |   NUM |
-----------------------------------------------------------------------
|  4   | 60.000 |  0.000  |  21   |  0.000  |   4   |  0.000  |   1   |
-----------------------------------------------------------------------



vv relatório de barras vv área 1 vv

|          BARRA           |         TENSAO       |        GERACAO      |         CARGA       |   SHUNT  |
| NUM |     NOME     |  T  |    MOD    |    ANG   |    MW    |   Mvar   |    MW    |   Mvar   |    Mvar  |
----------------------------------------------------------------------------------------------------------
|  1  | Glen-Lyn-132 |  2  |   1.060   |  +0.00   | 260.889  | -16.798  |  0.000   |  0.000   |  0.000   |
----------------------------------------------------------------------------------------------------------
|  2  | Claytor--132 |  1  |   1.043   |  -5.35   |  40.000  |  48.875  |  21.700  |  12.700  |  0.000   |
----------------------------------------------------------------------------------------------------------
|  3  | Kumis----132 |  0  |   1.021   |  -7.54   |  0.000   |  -0.000  |  2.400   |  1.200   |  0.000   |
----------------------------------------------------------------------------------------------------------
|  4  |   Hancock    |  0  |   1.012   |  -9.29   |  -0.000  |  -0.000  |  7.600   |  1.600   |  0.000   |
----------------------------------------------------------------------------------------------------------
|  5  | Fieldale-132 |  1  |   1.010   |  -14.16  |  0.000   |  36.624  |  94.200  |  19.000  |  0.000   |
----------------------------------------------------------------------------------------------------------
|  6  | Roanoke--132 |  0  |   1.011   |  -11.07  |  0.000   |  -0.000  |  0.000   |  0.000   |  0.000   |
----------------------------------------------------------------------------------------------------------
|  7  | Blaine---132 |  0  |   1.003   |  -12.87  |  0.000   |  -0.000  |  22.800  |  10.900  |  0.000   |
----------------------------------------------------------------------------------------------------------
|  8  | Reusens--132 |  1  |   1.010   |  -11.81  |  0.000   |  35.319  |  30.000  |  30.000  |  0.000   |
----------------------------------------------------------------------------------------------------------
|  9  | Roanoke--1.0 |  0  |   1.053   |  -14.12  |  -0.000  |  0.000   |  0.000   |  0.000   |  0.000   |
----------------------------------------------------------------------------------------------------------
| 10  | Roanoke---33 |  0  |   1.050   |  -15.70  |  -0.000  |  0.000   |  5.800   |  2.000   |  20.938  |
----------------------------------------------------------------------------------------------------------

|          BARRA           |         TENSAO       |        GERACAO      |         CARGA       |   SHUNT  |
| NUM |     NOME     |  T  |    MOD    |    ANG   |    MW    |   Mvar   |    MW    |   Mvar   |    Mvar  |
----------------------------------------------------------------------------------------------------------
| 11  | Roanoke---11 |  1  |   1.082   |  -14.12  |  0.000   |  14.921  |  0.000   |  0.000   |  0.000   |
----------------------------------------------------------------------------------------------------------
| 12  | Hancock---33 |  0  |   1.059   |  -14.90  |  0.000   |  0.000   |  11.200  |  7.500   |  0.000   |
----------------------------------------------------------------------------------------------------------
| 13  | Hancock---11 |  1  |   1.071   |  -14.90  |  0.000   |  9.384   |  0.000   |  0.000   |  0.000   |
----------------------------------------------------------------------------------------------------------
| 14  | Barra14---33 |  0  |   1.044   |  -15.80  |  -0.000  |  -0.000  |  6.200   |  1.600   |  0.000   |
----------------------------------------------------------------------------------------------------------
| 15  | Barra15---33 |  0  |   1.040   |  -15.90  |  0.000   |  0.000   |  8.200   |  2.500   |  0.000   |
----------------------------------------------------------------------------------------------------------
| 16  | Barra16---33 |  0  |   1.047   |  -15.51  |  0.000   |  -0.000  |  3.500   |  1.800   |  0.000   |
----------------------------------------------------------------------------------------------------------
| 17  | Barra17---33 |  0  |   1.044   |  -15.86  |  0.000   |  0.000   |  9.000   |  5.800   |  0.000   |
----------------------------------------------------------------------------------------------------------
| 18  | Barra18---33 |  0  |   1.032   |  -16.53  |  -0.000  |  -0.000  |  3.200   |  0.900   |  0.000   |
----------------------------------------------------------------------------------------------------------
| 19  | Barra19---33 |  0  |   1.030   |  -16.71  |  0.000   |  0.261   |  9.500   |  3.400   |  0.000   |
----------------------------------------------------------------------------------------------------------
| 20  | Barra20---33 |  0  |   1.034   |  -16.52  |  -0.000  |  -0.000  |  2.200   |  0.700   |  0.000   |
----------------------------------------------------------------------------------------------------------

|          BARRA           |         TENSAO       |        GERACAO      |         CARGA       |   SHUNT  |
| NUM |     NOME     |  T  |    MOD    |    ANG   |    MW    |   Mvar   |    MW    |   Mvar   |    Mvar  |
----------------------------------------------------------------------------------------------------------
| 21  | Barra21---33 |  0  |   1.039   |  -16.19  |  -0.000  |  4.002   |  17.500  |  11.200  |  0.000   |
----------------------------------------------------------------------------------------------------------
| 22  | Barra22---33 |  0  |   1.039   |  -16.17  |  0.000   |  0.000   |  0.000   |  0.000   |  0.000   |
----------------------------------------------------------------------------------------------------------
| 23  | Barra23---33 |  0  |   1.031   |  -16.31  |  -0.000  |  -0.000  |  3.200   |  1.600   |  0.000   |
----------------------------------------------------------------------------------------------------------
| 24  | Barra24---33 |  0  |   1.027   |  -16.50  |  -0.000  |  0.000   |  8.700   |  6.700   |  4.533   |
----------------------------------------------------------------------------------------------------------
| 25  | Barra25---33 |  0  |   1.022   |  -16.07  |  0.000   |  0.000   |  0.000   |  0.000   |  0.000   |
----------------------------------------------------------------------------------------------------------
| 26  | Barra26---33 |  0  |   1.005   |  -16.48  |  0.000   |  0.000   |  3.500   |  2.300   |  0.000   |
----------------------------------------------------------------------------------------------------------
| 27  | Cloverdle-33 |  0  |   1.028   |  -15.54  |  0.000   |  -0.000  |  0.000   |  0.000   |  0.000   |
----------------------------------------------------------------------------------------------------------
| 28  | Cloverdle132 |  0  |   1.008   |  -11.70  |  -0.000  |  -0.000  |  0.000   |  0.000   |  0.000   |
----------------------------------------------------------------------------------------------------------
| 29  | Barra29---33 |  0  |   1.010   |  -16.80  |  -0.000  |  -0.000  |  2.400   |  0.900   |  0.000   |
----------------------------------------------------------------------------------------------------------
| 30  | Barra30---33 |  0  |   1.000   |  -17.71  |  0.000   |  0.842   |  10.600  |  1.900   |  0.000   |
----------------------------------------------------------------------------------------------------------



vv relatório de compensadores estáticos de potência reativa vv

|              BARRA             | DROOP |    V0     |          GERACAO Mvar          |  BARRA CONTROL  |              CONTROL            |
| NUM |     NOME     |  TENSAO   |  [%]  |  [p.u.]   |  MINIMA  |  ATUAL   |  MAXIMA  | NUM |  TENSAO   | T | UNIDADES | GRP |   REGIAO   |
-------------------------------------------------------------------------------------------------------------------------------------------
| 19  | Barra19---33 |   1.030   | 5.00  |   1.030   | -42.425  |  0.261   |  42.425  | 19  |   1.030   | P |    1     |  1  |   LINEAR   |
-------------------------------------------------------------------------------------------------------------------------------------------
| 21  | Barra21---33 |   1.039   | 2.00  |   1.040   | -43.197  |  4.002   |  43.197  | 21  |   1.039   | P |    1     |  1  |   LINEAR   |
-------------------------------------------------------------------------------------------------------------------------------------------
| 30  | Barra30---33 |   1.000   | 2.00  |   1.000   | -49.983  |  0.842   |  49.983  | 30  |   1.000   | P |    1     |  1  |   LINEAR   |
-------------------------------------------------------------------------------------------------------------------------------------------




fim do relatório do sistema ieee30-libsvc