resultados/Relatorios/ieee30/ieee30-report.txt
February 16, 2024


relatorio do sistema ieee30

solucao do fluxo de potencia via metodo newton-raphson

opcoes de controle ativadas: Nenhum controle ativo!

opcoes de relatorio ativadas: RBAR 



vv relatorio de convergencia vv

       |  FREQ  |  ERROR  | BARRA |  ERROR  | BARRA |  ERROR  | BARRA |
| ITER |    Hz  |     MW  |   NUM |   MVAr  |   NUM |   CTRL  |   NUM |
-----------------------------------------------------------------------
|  1   | 60.000 | 92.801  |   5   | 22.165  |   4   |  0.000  |   1   |
|  2   | 60.000 |  5.092  |   2   |  5.944  |   6   |  0.000  |   1   |
|  3   | 60.000 |  0.016  |   6   |  0.049  |   3   |  0.000  |   1   |
|  4   | 60.000 |  0.000  |   6   |  0.000  |   3   |  0.000  |   1   |
-----------------------------------------------------------------------

 * * * * SISTEMA CONVERGENTE * * * * 

       |  FREQ  |  ERROR  | BARRA |  ERROR  | BARRA |  ERROR  | BARRA |
| ITER |    Hz  |     MW  |   NUM |   MVAr  |   NUM |   CTRL  |   NUM |
-----------------------------------------------------------------------
|  4   | 60.000 |  0.000  |   4   |  0.000  |   6   |  0.000  |   1   |
-----------------------------------------------------------------------



vv relatorio de barras vv area 1 vv

|          BARRA           |         TENSAO       |        GERACAO      |         CARGA       |   SHUNT  |
| NUM |     NOME     |  T  |    MOD    |    ANG   |    MW    |   MVAr   |    MW    |   MVAr   |    MVAr  |
----------------------------------------------------------------------------------------------------------
|  1  | Glen-Lyn-132 |  2  |   1.060   |  +0.00   |  0.000   |  0.000   |  0.000   |  0.000   |  0.000   |
----------------------------------------------------------------------------------------------------------
|  2  | Claytor--132 |  1  |   1.043   |  -5.35   |  0.000   |  0.000   |  21.700  |  12.700  |  0.000   |
----------------------------------------------------------------------------------------------------------
|  3  | Kumis----132 |  0  |   1.021   |  -7.53   |  0.000   |  0.000   |  2.400   |  1.200   |  0.000   |
----------------------------------------------------------------------------------------------------------
|  4  |   Hancock    |  0  |   1.012   |  -9.28   |  0.000   |  0.000   |  7.600   |  1.600   |  0.000   |
----------------------------------------------------------------------------------------------------------
|  5  | Fieldale-132 |  1  |   1.010   |  -14.17  |  0.000   |  0.000   |  94.200  |  19.000  |  0.000   |
----------------------------------------------------------------------------------------------------------
|  6  | Roanoke--132 |  0  |   1.010   |  -11.07  |  0.000   |  0.000   |  0.000   |  0.000   |  0.000   |
----------------------------------------------------------------------------------------------------------
|  7  | Blaine---132 |  0  |   1.002   |  -12.87  |  0.000   |  0.000   |  22.800  |  10.900  |  0.000   |
----------------------------------------------------------------------------------------------------------
|  8  | Reusens--132 |  1  |   1.010   |  -11.81  |  0.000   |  0.000   |  30.000  |  30.000  |  0.000   |
----------------------------------------------------------------------------------------------------------
|  9  | Roanoke--1.0 |  0  |   1.051   |  -14.11  |  0.000   |  0.000   |  0.000   |  0.000   |  0.000   |
----------------------------------------------------------------------------------------------------------
| 10  | Roanoke---33 |  0  |   1.045   |  -15.70  |  0.000   |  0.000   |  5.800   |  2.000   |  20.753  |
----------------------------------------------------------------------------------------------------------

|          BARRA           |         TENSAO       |        GERACAO      |         CARGA       |   SHUNT  |
| NUM |     NOME     |  T  |    MOD    |    ANG   |    MW    |   MVAr   |    MW    |   MVAr   |    MVAr  |
----------------------------------------------------------------------------------------------------------
| 11  | Roanoke---11 |  1  |   1.082   |  -14.11  |  0.000   |  0.000   |  0.000   |  0.000   |  0.000   |
----------------------------------------------------------------------------------------------------------
| 12  | Hancock---33 |  0  |   1.057   |  -14.94  |  0.000   |  0.000   |  11.200  |  7.500   |  0.000   |
----------------------------------------------------------------------------------------------------------
| 13  | Hancock---11 |  1  |   1.071   |  -14.94  |  0.000   |  0.000   |  0.000   |  0.000   |  0.000   |
----------------------------------------------------------------------------------------------------------
| 14  | Barra14---33 |  0  |   1.042   |  -15.84  |  0.000   |  0.000   |  6.200   |  1.600   |  0.000   |
----------------------------------------------------------------------------------------------------------
| 15  | Barra15---33 |  0  |   1.038   |  -15.93  |  0.000   |  0.000   |  8.200   |  2.500   |  0.000   |
----------------------------------------------------------------------------------------------------------
| 16  | Barra16---33 |  0  |   1.044   |  -15.53  |  0.000   |  0.000   |  3.500   |  1.800   |  0.000   |
----------------------------------------------------------------------------------------------------------
| 17  | Barra17---33 |  0  |   1.040   |  -15.86  |  0.000   |  0.000   |  9.000   |  5.800   |  0.000   |
----------------------------------------------------------------------------------------------------------
| 18  | Barra18---33 |  0  |   1.028   |  -16.54  |  0.000   |  0.000   |  3.200   |  0.900   |  0.000   |
----------------------------------------------------------------------------------------------------------
| 19  | Barra19---33 |  0  |   1.026   |  -16.72  |  0.000   |  0.000   |  9.500   |  3.400   |  0.000   |
----------------------------------------------------------------------------------------------------------
| 20  | Barra20---33 |  0  |   1.030   |  -16.52  |  0.000   |  0.000   |  2.200   |  0.700   |  0.000   |
----------------------------------------------------------------------------------------------------------

|          BARRA           |         TENSAO       |        GERACAO      |         CARGA       |   SHUNT  |
| NUM |     NOME     |  T  |    MOD    |    ANG   |    MW    |   MVAr   |    MW    |   MVAr   |    MVAr  |
----------------------------------------------------------------------------------------------------------
| 21  | Barra21---33 |  0  |   1.033   |  -16.14  |  0.000   |  0.000   |  17.500  |  11.200  |  0.000   |
----------------------------------------------------------------------------------------------------------
| 22  | Barra22---33 |  0  |   1.033   |  -16.13  |  0.000   |  0.000   |  0.000   |  0.000   |  0.000   |
----------------------------------------------------------------------------------------------------------
| 23  | Barra23---33 |  0  |   1.027   |  -16.32  |  0.000   |  0.000   |  3.200   |  1.600   |  0.000   |
----------------------------------------------------------------------------------------------------------
| 24  | Barra24---33 |  0  |   1.022   |  -16.50  |  0.000   |  0.000   |  8.700   |  6.700   |  4.487   |
----------------------------------------------------------------------------------------------------------
| 25  | Barra25---33 |  0  |   1.017   |  -16.07  |  0.000   |  0.000   |  0.000   |  0.000   |  0.000   |
----------------------------------------------------------------------------------------------------------
| 26  | Barra26---33 |  0  |   1.000   |  -16.49  |  0.000   |  0.000   |  3.500   |  2.300   |  0.000   |
----------------------------------------------------------------------------------------------------------
| 27  | Cloverdle-33 |  0  |   1.023   |  -15.54  |  0.000   |  0.000   |  0.000   |  0.000   |  0.000   |
----------------------------------------------------------------------------------------------------------
| 28  | Cloverdle132 |  0  |   1.007   |  -11.69  |  0.000   |  0.000   |  0.000   |  0.000   |  0.000   |
----------------------------------------------------------------------------------------------------------
| 29  | Barra29---33 |  0  |   1.003   |  -16.77  |  0.000   |  0.000   |  2.400   |  0.900   |  0.000   |
----------------------------------------------------------------------------------------------------------
| 30  | Barra30---33 |  0  |   0.992   |  -17.66  |  0.000   |  0.000   |  10.600  |  1.900   |  0.000   |
----------------------------------------------------------------------------------------------------------



fim do relatorio do sistema ieee30